examples/national_grid/data/ireland/models/2008/sp2011.raw
<!DOCTYPE HTML PUBLIC "-//W3C//DTD HTML 4.0 Transitional//EN">
<!-- saved from url=(0082)http://www.eirgrid.com/EirgridPortal/uploads/Publications/Summer%20Peak%202011.raw -->
<HTML><HEAD>
<META http-equiv=Content-Type content="text/html; charset=windows-1252">
<META content="MSHTML 6.00.2900.3492" name=GENERATOR></HEAD>
<BODY><PRE>0,   100.00          / PSS/E-30.3    WED, NOV 26 2008  12:07
/ CASE: 2011;  AUTUMN 01/07/2011; FORECAST STATEMENT 2008 -
/ FS08_SEP08 - MEMO  GALLERY_T;  16:09:41  TUESDAY, SEPTEMBE
    10,'F_M_____    ',  38.0000,1,     0.000,     0.000,   1,   3,1.03055, -12.3012,   2
    11,'FMN_LOOP    ',  38.0000,1,     0.000,     0.000,   1,   1,1.04411,  -8.5410,   2
    12,'BEDFORD     ',  38.0000,1,     0.000,     0.000,   1,   1,1.01906,  -9.7989,   2
    13,'M_R_____    ',  38.0000,1,     0.000,     0.000,   1,   1,1.02058, -11.0025,   2
    14,'F_I_____    ',  38.0000,1,     0.000,     0.000,   1,   3,1.02940,  -9.8038,   2
    15,'I_M_____    ',  38.0000,1,     0.000,     0.000,   1,   1,1.03896,  -9.5448,   2
  1021,'ARDNACRU    ', 110.0000,1,     0.000,     0.000,   4,   1,1.05387,  -2.0998,   1
  1041,'AGHADA      ', 110.0000,1,     0.000,     0.000,   3,   1,1.06174,  -0.2285,   1
  1042,'AGHADA      ', 220.0000,1,     0.000,     0.000,   3,   1,1.07438,   7.6840,   1
  1052,'AGHADA2     ', 220.0000,1,     0.000,     0.000,   3,   1,1.07500,   2.3532,   1
  1061,'ARIGNA      ', 110.0000,1,     0.000,     0.000,   9,   1,1.06728,  -5.0180,   2
  1062,'AGHADA3     ', 220.0000,1,     0.000,     0.000,   3,   1,1.07500,   2.3532,   1
  1071,'AGANNYGA    ', 110.0000,1,     0.000,     0.000,   4,   1,1.07111,  -2.3974,   1
  1072,'AGHADA4     ', 220.0000,1,     0.000,     0.000,   3,   1,1.07459,   7.7408,   1
  1081,'AHANE       ', 110.0000,1,     0.000,     0.000,   7,   1,1.05447,  -1.4851,   2
  1091,'ADAMSTOW    ', 110.0000,1,     0.000,     0.000,   1,   1,1.06068,  -5.0096,   2
  1101,'ANNER       ', 110.0000,1,     0.000,     0.000,   5,   3,1.02992,  -8.5942,   5
  1121,'ARKLOW      ', 110.0000,1,     0.000,     0.000,   6,   1,1.04968,  -6.3762,   1
  1122,'ARKLOW      ', 220.0000,1,     0.000,     0.000,   6,   1,1.05710,  -4.4309,   1
  1131,'ATHEA       ', 110.0000,1,     0.000,     0.000,   7,   5,1.07500,   2.7226,   4
  1141,'ATHLONE     ', 110.0000,1,     0.000,     0.000,   9,   1,1.06487,  -5.1319,   1
  1161,'AUGHINIS    ', 110.0000,1,     0.000,     0.000,   7,   3,1.07500,   3.1852,   1
  1181,'ARVA        ', 110.0000,1,     0.000,     0.000,  10,   1,1.06547,  -8.3642,   1
  1201,'ARTANE      ', 110.0000,1,     0.000,     0.000,   1,   1,1.04468,  -5.1107,   2
  1221,'ATHY        ', 110.0000,1,     0.000,     0.000,   8,   1,1.03995,  -7.1320,   1
  1231,'BALLYWAT    ', 110.0000,1,     0.000,     0.000,   6,   1,1.06552,  -6.0569,   4
  1241,'BALLYCUM    ', 110.0000,1,     0.000,     0.000,   7,   1,1.04939,  -1.1199,   1
  1251,'BOOLTIAG    ', 110.0000,1,     0.000,     0.000,   4,   1,1.04610,  -2.8347,   2
  1271,'BALTRASN    ', 110.0000,1,     0.000,     0.000,  10,   1,1.04543,  -6.5643,   1
  1281,'BALLYLIC    ', 110.0000,1,     0.000,     0.000,   3,   1,1.04206,  -1.6972,   2
  1301,'BALLYBEG    ', 110.0000,1,     0.000,     0.000,   6,   1,1.04310,  -7.1129,   1
  1321,'BLAKE       ', 110.0000,1,     0.000,     0.000,   8,   1,1.03862,  -6.7304,   2
  1331,'BALLYCAD    ', 110.0000,1,     0.000,     0.000,   6,   1,1.06202,  -5.3859,   1
  1341,'BINBANE     ', 110.0000,1,     0.000,     0.000,   9,   1,1.03482,  -4.2550,   2
  1351,'BARODA      ', 110.0000,1,     0.000,     0.000,   8,   1,1.04197,  -7.2124,   1
  1361,'BALLYDIN    ', 110.0000,1,     0.000,     0.000,   5,   1,1.02916,  -8.1123,   1
  1371,'BALLYMUR    ', 110.0000,1,     0.000,     0.000,   4,   1,1.04508,  -3.3323,   2
  1381,'BARNAHEL    ', 110.0000,1,     0.000,     0.000,   3,   1,1.05929,  -0.7565,   1
  1391,'BARNAHEL    ', 110.0000,1,     0.000,     0.000,   3,   1,1.06139,  -1.0980,   1
  1401,'BELLACOR    ', 110.0000,1,     0.000,     0.000,   9,   1,1.06532,  -6.3902,   1
  1421,'BLACKROC    ', 110.0000,1,     0.000,     0.000,   1,   2,1.04247,  -6.9429,   2
  1441,'BANDON      ', 110.0000,1,     0.000,     0.000,   3,   1,1.04976,  -2.3761,   1
  1461,'BARRYMOR    ', 110.0000,1,     0.000,     0.000,   5,   1,1.04319,  -3.6395,   2
  1471,'BALGRIFF    ', 110.0000,1,     0.000,     0.000,   1,   1,1.07431,  -3.3244,   2
  1472,'BALGRIFF    ', 220.0000,1,     0.000,     0.000,   1,   1,1.07613,  -1.3341,   2
  1481,'BUTLERST    ', 110.0000,1,     0.000,     0.000,   5,   1,1.02618,  -7.4394,   1
  1501,'BRINNY      ', 110.0000,1,     0.000,     0.000,   3,   1,1.04962,  -2.3844,   5
  1511,'BRINNY      ', 110.0000,1,     0.000,     0.000,   3,   1,1.04963,  -2.3840,   5
  1541,'BANOGE      ', 110.0000,1,     0.000,     0.000,   6,   1,1.04915,  -6.5682,   1
  1571,'BUNBEG      ', 110.0000,1,     0.000,     0.000,   9,   1,1.01652,  -5.3241,   2
  1581,'CABRA       ', 110.0000,1,     0.000,     0.000,   1,   2,1.04330,  -5.1900,   2
  1601,'CLASHAVO    ', 110.0000,1,     0.000,     0.000,   3,   1,1.06522,   0.2339,   1
  1602,'CLASHAVO    ', 220.0000,1,     0.000,     0.000,   3,   1,1.06839,   4.2038,   1
  1611,'CLONKEEN    ', 110.0000,1,     0.000,     0.000,   7,   1,1.07254,   1.0659,   1
  1621,'COOLROE     ', 110.0000,1,     0.000,     0.000,   3,   1,1.05438,  -1.3554,   1
  1631,'CORDERRY    ', 110.0000,1,     0.000,     0.000,   9,   1,1.07000,  -4.5774,   1
  1641,'CASHLA      ', 110.0000,1,     0.000,     0.000,   9,   1,1.07765,  -1.8850,   1
  1642,'CASHLA      ', 220.0000,1,     0.000,     0.000,   9,   1,1.07026,   1.4961,   1
  1651,'CLAHANE     ', 110.0000,1,     0.000,     0.000,   7,   5,1.07500,   2.1289,   1
  1661,'CASTLEBA    ', 110.0000,1,     0.000,     0.000,   9,   1,1.06027,  -6.2746,   1
  1681,'CARRIGAD    ', 110.0000,1,     0.000,     0.000,   3,   1,1.06151,  -0.5494,   1
  1691,'CENTRAL     ', 110.0000,1,     0.000,     0.000,   1,   1,1.04363,  -6.8563,   1
  1701,'CATH_FAL    ', 110.0000,1,     0.000,     0.000,   9,   1,1.05039,  -4.5562,   1
  1711,'CROMCAST    ', 110.0000,1,     0.000,     0.000,   1,   1,1.07387,  -3.3797,   1
  1721,'CAHIR       ', 110.0000,1,     0.000,     0.000,   5,   1,1.04374,  -7.9476,   1
  1731,'CROMCAST    ', 110.0000,1,     0.000,     0.000,   1,   1,1.07387,  -3.3797,   1
  1741,'CARRICKM    ', 110.0000,1,     0.000,     0.000,   2,   2,1.04376,  -6.8451,   2
  1742,'CARRICKM    ', 220.0000,1,     0.000,     0.000,   2,   2,1.07084,  -2.7182,   1
  1751,'CARRICKM    ', 110.0000,1,     0.000,     0.000,   2,   1,1.07084,  -2.7182,   1
  1761,'CLIFF       ', 110.0000,1,     0.000,     0.000,   9,   1,1.05030,  -4.4502,   1
  1781,'CASTLEFA    ', 110.0000,1,     0.000,     0.000,   7,   3,1.07464,   3.1676,   5
  1791,'CASTLEFA    ', 110.0000,1,     0.000,     0.000,   7,   3,1.07463,   3.1665,   5
  1801,'COOKSTOW    ', 110.0000,1,     0.000,     0.000,   1,   2,1.06425,  -5.4623,   2
  1811,'COOKSTOW    ', 110.0000,1,     0.000,     0.000,   1,   1,1.03348,  -7.5144,   1
  1821,'CLOON       ', 110.0000,1,     0.000,     0.000,   9,   1,1.07234,  -3.8155,   1
  1841,'CRANE       ', 110.0000,1,     0.000,     0.000,   6,   1,1.05939,  -6.1875,   1
  1851,'CHERRYWO    ', 110.0000,1,     0.000,     0.000,   2,   1,1.04202,  -6.9343,   1
  1861,'CARICKON    ', 110.0000,1,     0.000,     0.000,   9,   1,1.06613,  -5.6509,   1
  1871,'COLLEGE     ', 110.0000,1,     0.000,     0.000,   2,   1,1.05572,  -4.8896,   1
  1881,'CHARLEVI    ', 110.0000,1,     0.000,     0.000,   3,   1,1.02983,  -2.1439,   1
  1901,'CARLOW      ', 110.0000,1,     0.000,     0.000,   6,   1,1.04659,  -7.1426,   1
  1921,'COW CROS    ', 110.0000,1,     0.000,     0.000,   3,   1,1.05612,  -0.8283,   1
  1931,'CUNGHILL    ', 110.0000,1,     0.000,     0.000,   9,   1,1.07500,  -5.3899,   4
  1941,'CUSHALIN    ', 110.0000,1,     0.000,     0.000,   8,   1,1.07500,  -5.0099,   1
  1951,'CARROWBE    ', 110.0000,1,     0.000,     0.000,   9,   1,1.04910,  -6.9124,   1
  1961,'CASTLEVI    ', 110.0000,1,     0.000,     0.000,   3,   1,1.05167,  -1.0262,   1
  1971,'COOMAGEA    ', 110.0000,1,     0.000,     0.000,   7,   1,1.07447,   1.3127,   4
  1981,'CORRACLA    ', 110.0000,1,     0.000,     0.000,   9,   1,1.05939,  -7.7309,   1
  1991,'CASTLEDO    ', 110.0000,1,     0.000,     0.000,   6,   1,1.06360,  -5.5040,   1
  2001,'CULLENAG    ', 110.0000,1,     0.000,     0.000,   5,   1,1.03532,  -6.7858,   1
  2002,'CULLENAG    ', 220.0000,1,     0.000,     0.000,   5,   1,1.04653,  -4.3197,   1
  2021,'CITY WES    ', 110.0000,1,     0.000,     0.000,   1,   1,1.06345,  -5.5051,   2
  2031,'CHARLESL    ', 110.0000,1,     0.000,     0.000,   6,   1,1.03804,  -7.4228,   1
  2041,'CORDUFF     ', 110.0000,1,     0.000,     0.000,   2,   1,1.05665,  -4.7979,   1
  2042,'CORDUFF     ', 220.0000,1,     0.000,     0.000,   2,   1,1.07417,  -1.0579,   1
  2051,'CORDUFF     ', 110.0000,1,     0.000,     0.000,   2,   1,1.05665,  -4.7979,   1
  2081,'DUNKETTL    ', 110.0000,4,     0.000,     0.000,   3,   1,1.00000,   0.0000,   5
  2101,'DUNDALK     ', 110.0000,1,     0.000,     0.000,  10,   1,1.06090,  -8.4636,   2
  2121,'DRUMLINE    ', 110.0000,1,     0.000,     0.000,   4,   1,1.04559,  -3.3035,   1
  2141,'DUNGARVA    ', 110.0000,1,     0.000,     0.000,   5,   1,1.03453,  -5.2705,   1
  2161,'DOON        ', 110.0000,1,     0.000,     0.000,   5,   1,1.03051,  -8.5596,   1
  2181,'DRYBRIDG    ', 110.0000,1,     0.000,     0.000,  10,   1,1.04017,  -8.0474,   1
  2202,'DUNSTOWN    ', 220.0000,1,     0.000,     0.000,   2,   7,1.07375,  -2.0151,   1
  2204,'DUNSTOWN    ', 380.0000,1,     0.000,     0.000,   2,   1,1.02269,   2.2145,   1
  2221,'DUNMANWA    ', 110.0000,1,     0.000,     0.000,   3,   1,1.04920,  -1.9183,   1
  2231,'DERRYBRI    ', 110.0000,1,     0.000,     0.000,   4,   1,1.07500,  -2.1485,   2
  2241,'DALLOW      ', 110.0000,1,     0.000,     0.000,   5,   1,1.06156,  -3.7989,   2
  2251,'DARDISTO    ', 110.0000,1,     0.000,     0.000,   1,   1,1.07424,  -3.3774,   1
  2261,'DERRYIRO    ', 110.0000,1,     0.000,     0.000,   8,   1,1.04805,  -6.2977,   1
  2281,'DALTON      ', 110.0000,1,     0.000,     0.000,   9,   1,1.06598,  -5.5737,   1
  2301,'DUNFIRTH    ', 110.0000,1,     0.000,     0.000,   8,   1,1.04850,  -5.9434,   2
  2321,'DRUMKEEN    ', 110.0000,1,     0.000,     0.000,   9,   1,1.04149,  -3.7078,   1
  2361,'ENNIS       ', 110.0000,1,     0.000,     0.000,   4,   1,1.04744,  -3.0862,   1
  2481,'FASS EAS    ', 110.0000,1,     0.000,     0.000,   2,   2,1.03841,  -7.1307,   2
  2491,'FASS WES    ', 110.0000,1,     0.000,     0.000,   2,   2,1.03867,  -7.1167,   2
  2521,'FLAGFORD    ', 110.0000,1,     0.000,     0.000,   9,   1,1.06736,  -5.5285,   1
  2522,'FLAGFORD    ', 220.0000,1,     0.000,     0.000,   9,   7,1.06540,  -3.6246,   1
  2531,'FINNSTOW    ', 110.0000,1,     0.000,     0.000,   1,   1,1.06072,  -5.0059,   1
  2532,'FINNSTOW    ', 220.0000,1,     0.000,     0.000,   2,   1,1.07110,  -3.1957,   1
  2541,'FRN ST A    ', 110.0000,1,     0.000,     0.000,   1,   2,1.05239,  -6.6846,   2
  2551,'FRN ST B    ', 110.0000,1,     0.000,     0.000,   1,   2,1.06421,  -5.4557,   2
  2561,'FIN_URBA    ', 110.0000,1,     0.000,     0.000,   2,   2,1.04730,  -4.9318,   1
  2562,'FINGLAS     ', 220.0000,1,     0.000,     0.000,   2,   7,1.07500,  -1.1206,   1
  2571,'FIN_RURA    ', 110.0000,1,     0.000,     0.000,   2,   2,1.07389,  -3.3442,   1
  2581,'FIN_SUBU    ', 110.0000,1,     0.000,     0.000,   2,   1,1.05562,  -4.9120,   1
  2591,'FIN_OPEN    ', 110.0000,1,     0.000,     0.000,   2,   1,1.07500,  -1.1206,   2
  2671,'GARVAGH     ', 110.0000,1,     0.000,     0.000,   9,   1,1.07500,  -4.3920,   4
  2681,'GILRA       ', 110.0000,1,     0.000,     0.000,   9,   3,1.06864,  -5.8219,   2
  2701,'GLASMORE    ', 110.0000,1,     0.000,     0.000,   1,   2,1.06363,  -4.0603,   2
  2721,'GRIFFINR    ', 110.0000,1,     0.000,     0.000,   2,   2,1.05508,  -5.9286,   2
  2731,'GLANLEE     ', 110.0000,1,     0.000,     0.000,   7,   5,1.07452,   1.3295,   4
  2741,'GREAT IS    ', 110.0000,1,     0.000,     0.000,   6,   1,1.03378,  -7.0875,   1
  2742,'GREAT IS    ', 220.0000,1,     0.000,     0.000,   6,   7,1.04667,  -4.8500,   1
  2761,'GRANGE      ', 110.0000,1,     0.000,     0.000,   1,   2,1.07302,  -3.3974,   2
  2771,'GARROW      ', 110.0000,1,     0.000,     0.000,   7,   1,1.07500,   1.1479,   7
  2781,'GALWAY      ', 110.0000,1,     0.000,     0.000,   9,   1,1.06461,  -2.5424,   1
  2801,'GOLAGH      ', 110.0000,1,     0.000,     0.000,   9,   1,1.04548,  -4.1311,   4
  2821,'GORTAWEE    ', 110.0000,1,     0.000,     0.000,   9,   1,1.06006,  -8.3140,   1
  2841,'GORMAN      ', 110.0000,1,     0.000,     0.000,  10,   1,1.04938,  -8.0785,   1
  2842,'GORMAN      ', 220.0000,1,     0.000,     0.000,  10,   1,1.05668,  -5.5161,   1
  2852,'GLANAGOW    ', 220.0000,1,     0.000,     0.000,   3,   1,1.07517,   2.4522,   1
  2861,'GRANGE C    ', 110.0000,1,     0.000,     0.000,   1,   1,1.06044,  -5.0205,   2
  2881,'GLENLARA    ', 110.0000,1,     0.000,     0.000,   3,   1,1.01870,  -2.0305,   2
  2941,'HAROLDS     ', 110.0000,1,     0.000,     0.000,   1,   2,1.05268,  -6.6740,   2
  2951,'HEUSTON     ', 110.0000,1,     0.000,     0.000,   1,   1,1.06456,  -5.4357,   1
  2962,'HUNTSTOW    ', 220.0000,1,     0.000,     0.000,   2,   1,1.07520,  -1.0175,   4
  2972,'HUNTSTOW    ', 220.0000,1,     0.000,     0.000,   2,   1,1.07443,  -0.7165,   4
  2981,'HARNETTS    ', 110.0000,1,     0.000,     0.000,   3,   1,1.06085,  -0.5789,   2
  3061,'INISCARR    ', 110.0000,1,     0.000,     0.000,   3,   1,1.05671,  -1.2530,   1
  3081,'INCH_CIT    ', 110.0000,1,     0.000,     0.000,   1,   2,1.06513,  -5.3888,   2
  3082,'INCHICOR    ', 220.0000,1,     0.000,     0.000,   2,   2,1.07382,  -3.1929,   1
  3091,'INCH_COU    ', 110.0000,1,     0.000,     0.000,   1,   1,1.06227,  -4.8794,   2
  3101,'IKERRIN     ', 110.0000,1,     0.000,     0.000,   5,   1,1.03838,  -7.9174,   2
  3122,'IRISHTOW    ', 220.0000,1,     0.000,     0.000,   2,   1,1.07500,  -2.2558,   1
  3201,'KNOCKRAH    ', 110.0000,1,     0.000,     0.000,   3,   1,1.05465,  -0.8391,   1
  3202,'KNOCKRAH    ', 220.0000,1,     0.000,     0.000,   3,   7,1.06752,   5.5746,   1
  3211,'KNOCKRAH    ', 110.0000,1,     0.000,     0.000,   3,   1,1.06752,   5.5746,   1
  3212,'KNOCKRAH    ', 220.0000,1,     0.000,     0.000,   3,   1,1.06489,   0.3634,   1
  3221,'KILBARRY    ', 110.0000,1,     0.000,     0.000,   3,   1,1.04802,  -1.5582,   1
  3241,'KILTEEL     ', 110.0000,1,     0.000,     0.000,   8,   1,1.04810,  -7.3183,   2
  3261,'KILKENNY    ', 110.0000,1,     0.000,     0.000,   6,   1,1.01841,  -9.1175,   1
  3281,'KILLONAN    ', 110.0000,1,     0.000,     0.000,   7,   1,1.05477,  -1.4613,   1
  3282,'KILLONAN    ', 220.0000,1,     0.000,     0.000,   7,   7,1.05339,   1.0085,   1
  3301,'KNOCKERA    ', 110.0000,1,     0.000,     0.000,   7,   1,1.06018,   0.4640,   1
  3321,'KNOCKUMB    ', 110.0000,1,     0.000,     0.000,  10,   3,1.04395,  -8.5508,   5
  3341,'KELLIS      ', 110.0000,1,     0.000,     0.000,   6,   1,1.05141,  -7.0072,   1
  3342,'KELLIS      ', 220.0000,1,     0.000,     0.000,   6,   1,1.04657,  -4.4015,   1
  3361,'KILTOY      ', 110.0000,1,     0.000,     0.000,   9,   3,1.03655,  -4.0026,   5
  3381,'KINNEGAD    ', 110.0000,1,     0.000,     0.000,   8,   1,1.04621,  -6.3618,   1
  3401,'KILLOTER    ', 110.0000,1,     0.000,     0.000,   5,   1,1.02745,  -7.4172,   1
  3421,'KILMORE     ', 110.0000,1,     0.000,     0.000,   1,   1,1.07386,  -3.3793,   2
  3431,'KILMAHUD    ', 110.0000,1,     0.000,     0.000,   1,   1,1.06016,  -5.0370,   1
  3501,'LANESBOR    ', 110.0000,1,     0.000,     0.000,   9,   1,1.07500,  -4.9311,   1
  3521,'LOUTH       ', 110.0000,1,     0.000,     0.000,  10,   1,1.07719,  -7.8075,   1
  3522,'LOUTH       ', 220.0000,1,     0.000,     0.000,  10,   7,1.05277,  -6.0172,   1
  3541,'LIMERICK    ', 110.0000,1,     0.000,     0.000,   7,   1,1.04844,  -1.4485,   1
  3561,'LISDRUM     ', 110.0000,1,     0.000,     0.000,  10,   1,1.07763,  -9.8025,   1
  3572,'LONGPOIN    ', 220.0000,1,     0.000,     0.000,   3,   1,1.07500,   7.8172,   1
  3581,'LETTERKE    ', 110.0000,1,     0.000,     0.000,   9,   1,1.03653,  -4.0023,   1
  3601,'LIBERTY     ', 110.0000,1,     0.000,     0.000,   3,   1,1.04892,  -1.6179,   2
  3611,'LIBERTY     ', 110.0000,1,     0.000,     0.000,   3,   1,1.04907,  -1.6097,   2
  3621,'LISHEEN     ', 110.0000,1,     0.000,     0.000,   5,   1,1.03218,  -9.8609,   5
  3641,'LODGEWOO    ', 110.0000,1,     0.000,     0.000,   6,   1,1.06215,  -5.5509,   1
  3642,'LODGEWOO    ', 220.0000,1,     0.000,     0.000,   6,   1,1.05512,  -4.8536,   1
  3751,'MISERY H    ', 110.0000,1,     0.000,     0.000,   1,   1,1.05325,  -6.6311,   2
  3761,'MACETOWN    ', 110.0000,1,     0.000,     0.000,   1,   2,1.05480,  -4.9474,   1
  3781,'MCDERMOT    ', 110.0000,1,     0.000,     0.000,   1,   2,1.04351,  -5.1719,   2
  3801,'MIDLETON    ', 110.0000,1,     0.000,     0.000,   3,   1,1.04821,  -1.0144,   1
  3821,'MEATH HI    ', 110.0000,1,     0.000,     0.000,  10,   1,1.05673,  -8.2930,   2
  3841,'MAYNOOTH    ', 110.0000,1,     0.000,     0.000,   2,   2,1.05709,  -5.7949,   1
  3842,'MAYNOOTH    ', 220.0000,1,     0.000,     0.000,   2,   7,1.06858,  -3.4479,   1
  3851,'MAYNOOTH    ', 110.0000,1,     0.000,     0.000,   2,   2,1.05534,  -5.0817,   1
  3852,'MAYNOOTH    ', 220.0000,1,     0.000,     0.000,   2,   2,1.07045,  -2.7200,   1
  3861,'MILLTOWN    ', 110.0000,1,     0.000,     0.000,   1,   2,1.05403,  -6.5820,   2
  3871,'MILLTOWN    ', 110.0000,1,     0.000,     0.000,   1,   2,1.06304,  -5.5875,   2
  3881,'MACROOM     ', 110.0000,1,     0.000,     0.000,   3,   1,1.06166,  -0.5169,   1
  3901,'MONETEEN    ', 110.0000,1,     0.000,     0.000,   7,   1,1.05102,  -0.6451,   1
  3934,'MNYPG1      ', 380.0000,1,     0.000,     6.000,   4,   1,1.07500,   8.7952,   1
  3941,'MONEYPOI    ', 110.0000,1,     0.000,     0.000,   4,   1,1.04006,  -2.6842,   1
  3942,'MONEYPOI    ', 220.0000,1,     0.000,     0.000,   7,   1,1.07545,   5.7304,   1
...
0 / END OF BUS DATA, BEGIN LOAD DATA
    10,'LD',1,   1,   1,    97.470,    36.740,     0.000,     0.000,     0.000,     0.000,   2
    11,'LD',1,   1,   1,    46.190,    15.750,     0.000,     0.000,     0.000,     0.000,   2
    12,'LD',1,   1,   1,    39.290,    21.280,     0.000,     0.000,     0.000,     0.000,   2
    13,'LD',1,   1,   1,    53.790,    18.290,     0.000,     0.000,     0.000,     0.000,   2
    14,'LD',1,   1,   1,    58.620,    21.100,     0.000,     0.000,     0.000,     0.000,   2
    15,'LD',1,   1,   1,    63.930,    15.950,     0.000,     0.000,     0.000,     0.000,   2
  1041,'LD',1,   3,   1,     1.810,     0.970,     0.000,     0.000,     0.000,     0.000,   2
  1101,'DM',1,   5,   2,    11.000,     3.840,     0.000,     0.000,     0.000,     0.000,   5
  1101,'MI',0,   5,   2,     5.620,     1.680,     0.000,     0.000,     0.000,     0.000,   5
  3621,'DM',1,   5,   2,    19.000,     6.200,     0.000,     0.000,     0.000,     0.000,   5
  4341,'DM',1,   3,   2,     0.280,     0.100,     0.000,     0.000,     0.000,     0.000,   5
 10204,'LD',1,   4,   1,     0.770,    -2.410,     0.000,     0.000,     0.000,     0.000,   2
 10205,'LD',1,   4,   1,    57.900,    23.760,     0.000,     0.000,     0.000,     0.000,   2
 10471,'HL',0,   3,   1,    11.990,     4.310,     0.000,     0.000,     0.000,     0.000,   3
 10475,'HL',0,   3,   1,     0.300,     0.100,     0.000,     0.000,     0.000,     0.000,   3
 10602,'LD',1,   9,   1,     4.260,     1.180,     0.000,     0.000,     0.000,     0.000,   2
 10801,'LD',1,   7,   1,     4.160,     1.360,     0.000,     0.000,     0.000,     0.000,   2
 10901,'LD',1,   1,   1,     6.230,     2.030,     0.000,     0.000,     0.000,     0.000,   2
 11201,'LD',1,   6,   1,     2.120,     0.580,     0.000,     0.000,     0.000,     0.000,   2
 11204,'LD',1,   6,   1,    35.810,    12.290,     0.000,     0.000,     0.000,     0.000,   2
 11404,'LD',1,   9,   1,    66.340,    27.260,     0.000,     0.000,     0.000,     0.000,   2
 12001,'LD',1,   1,   1,    12.290,     3.620,     0.000,     0.000,     0.000,     0.000,   2
 12202,'LD',1,   8,   1,    18.050,     5.930,     0.000,     0.000,     0.000,     0.000,   2
 12402,'LD',1,   7,   1,     9.650,     2.900,     0.000,     0.000,     0.000,     0.000,   2
 12702,'DM',1,  10,   2,     6.000,     2.000,     0.000,     0.000,     0.000,     0.000,   5
 12702,'LD',1,  10,   1,    14.480,     3.860,     0.000,     0.000,     0.000,     0.000,   2
 12804,'LD',1,   3,   1,     9.050,     5.430,     0.000,     0.000,     0.000,     0.000,   2
 13001,'LD',1,   6,   1,     9.650,     1.130,     0.000,     0.000,     0.000,     0.000,   2
 13204,'LD',1,   8,   1,    23.400,    14.500,     0.000,     0.000,     0.000,     0.000,   2
 13302,'LD',1,   6,   1,     5.790,     1.740,     0.000,     0.000,     0.000,     0.000,   2
 13404,'LD',1,   9,   1,     8.480,     6.430,     0.000,     0.000,     0.000,     0.000,   2
 13501,'DM',1,   8,   2,    19.000,     5.900,     0.000,     0.000,     0.000,     0.000,   5
 13601,'DM',1,   5,   2,     5.900,     1.900,     0.000,     0.000,     0.000,     0.000,   5
 13601,'MI',0,   5,   2,     1.220,     0.360,     0.000,     0.000,     0.000,     0.000,   5
 13604,'LD',1,   5,   1,     8.080,     3.500,     0.000,     0.000,     0.000,     0.000,   2
 13701,'LD',1,   4,   1,    11.000,     3.380,     0.000,     0.000,     0.000,     0.000,   2
 13802,'LD',1,   3,   1,    28.890,     9.490,     0.000,     0.000,     0.000,     0.000,   2
 13804,'LD',1,   3,   1,    18.210,     2.680,     0.000,     0.000,     0.000,     0.000,   2
 14002,'LD',1,   9,   1,     4.480,     1.460,     0.000,     0.000,     0.000,     0.000,   2
 14204,'LD',1,   1,   1,    25.110,    10.310,     0.000,     0.000,     0.000,     0.000,   2
 14401,'LD',1,   3,   1,     4.670,     1.530,     0.000,     0.000,     0.000,     0.000,   2
 14404,'LD',1,   3,   1,    29.920,     8.170,     0.000,     0.000,     0.000,     0.000,   2
 14604,'LD',1,   5,   1,    33.780,     6.030,     0.000,     0.000,     0.000,     0.000,   2
 14804,'LD',1,   5,   1,    43.550,    13.270,     0.000,     0.000,     0.000,     0.000,   2
 15001,'DM',1,   3,   2,     4.200,     1.400,     0.000,     0.000,     0.000,     0.000,   5
 15001,'MI',0,   3,   2,     1.970,     0.590,     0.000,     0.000,     0.000,     0.000,   5
 15402,'LD',1,   6,   1,    15.150,     4.980,     0.000,     0.000,     0.000,     0.000,   2
 15704,'LD',1,   9,   1,    14.340,     4.760,     0.000,     0.000,     0.000,     0.000,   2
 15801,'LD',1,   1,   1,    13.780,     4.520,     0.000,     0.000,     0.000,     0.000,   2
 16202,'LD',1,   3,   1,    15.370,     4.890,     0.000,     0.000,     0.000,     0.000,   2
 16604,'LD',1,   9,   1,    27.200,    17.930,     0.000,     0.000,     0.000,     0.000,   2
 16901,'LD',1,   1,   1,     5.500,     1.930,     0.000,     0.000,     0.000,     0.000,   2
 17004,'LD',1,   9,   1,    16.030,     5.800,     0.000,     0.000,     0.000,     0.000,   2
 17204,'DM',1,   5,   2,     2.900,     1.000,     0.000,     0.000,     0.000,     0.000,   5
 17204,'LD',1,   5,   1,    26.420,     9.170,     0.000,     0.000,     0.000,     0.000,   2
 17404,'LD',1,   2,   1,    52.400,    16.090,     0.000,     0.000,     0.000,     0.000,   2
 17802,'DM',1,   7,   2,    44.000,    14.500,     0.000,     0.000,     0.000,     0.000,   5
 17802,'MI',0,   7,   2,     5.000,     1.500,     0.000,     0.000,     0.000,     0.000,   5
 18004,'LD',1,   1,   1,    62.000,    22.320,     0.000,     0.000,     0.000,     0.000,   2
 18204,'LD',1,   9,   1,    20.070,     5.490,     0.000,     0.000,     0.000,     0.000,   2
 18402,'LD',1,   6,   1,    -0.950,    -0.210,     0.000,     0.000,     0.000,     0.000,   2
 18404,'LD',1,   6,   1,    16.860,     8.670,     0.000,     0.000,     0.000,     0.000,   2
 18501,'LD',1,   2,   1,    25.670,     8.430,     0.000,     0.000,     0.000,     0.000,   2
 18604,'LD',1,   9,   1,    28.830,    12.060,     0.000,     0.000,     0.000,     0.000,   2
 18701,'DM',1,   2,   2,    22.800,     7.500,     0.000,     0.000,     0.000,     0.000,   5
 18701,'LD',1,   2,   1,    18.090,     6.390,     0.000,     0.000,     0.000,     0.000,   2
 18804,'LD',1,   3,   1,    16.770,     8.440,     0.000,     0.000,     0.000,     0.000,   2
 19004,'LD',1,   6,   1,    42.850,    19.540,     0.000,     0.000,     0.000,     0.000,   2
 19204,'LD',1,   3,   1,    17.910,     5.890,     0.000,     0.000,     0.000,     0.000,   2
 19471,'HL',1,   8,   2,     9.900,     3.560,     0.000,     0.000,     0.000,     0.000,   4
 19504,'LD',1,   9,   1,    21.230,     5.790,     0.000,     0.000,     0.000,     0.000,   2
 19601,'LD',1,   3,   1,    25.250,     8.300,     0.000,     0.000,     0.000,     0.000,   2
 20201,'LD',1,   1,   1,    18.890,     6.200,     0.000,     0.000,     0.000,     0.000,   2
 20301,'DM',1,   6,   2,    25.000,     8.190,     0.000,     0.000,     0.000,     0.000,   5
 21004,'LD',1,  10,   1,    38.360,    20.040,     0.000,     0.000,     0.000,     0.000,   2
 21204,'LD',1,   4,   1,    29.760,     9.660,     0.000,     0.000,     0.000,     0.000,   2
 21404,'LD',1,   5,   1,    28.950,     9.650,     0.000,     0.000,     0.000,     0.000,   2
 21604,'LD',1,   5,   1,    31.850,    10.010,     0.000,     0.000,     0.000,     0.000,   2
 21804,'LD',1,  10,   1,    67.190,    25.330,     0.000,     0.000,     0.000,     0.000,   2
 22204,'LD',1,   3,   1,    30.280,    10.740,     0.000,     0.000,     0.000,     0.000,   2
 22404,'LD',1,   5,   1,    10.250,     4.580,     0.000,     0.000,     0.000,     0.000,   2
 22501,'LD',1,   1,   1,     6.530,     2.070,     0.000,     0.000,     0.000,     0.000,   2
 22671,'HL',0,   8,   1,     0.300,     0.100,     0.000,     0.000,     0.000,     0.000,   1
 22672,'HL',0,   8,   1,     0.300,     0.100,     0.000,     0.000,     0.000,     0.000,   1
 22804,'LD',1,   9,   1,    22.920,     4.920,     0.000,     0.000,     0.000,     0.000,   2
 23001,'LD',1,   8,   1,     4.040,     1.330,     0.000,     0.000,     0.000,     0.000,   2
 23601,'LD',1,   4,   1,    11.870,     3.960,     0.000,     0.000,     0.000,     0.000,   2
 23604,'LD',1,   4,   1,    33.610,    11.850,     0.000,     0.000,     0.000,     0.000,   2
 24804,'LD',1,   2,   1,    48.370,    14.840,     0.000,     0.000,     0.000,     0.000,   2
 25604,'LD',1,   2,   1,    62.010,    19.140,     0.000,     0.000,     0.000,     0.000,   2
 26802,'DM',1,   9,   2,    11.870,     3.900,     0.000,     0.000,     0.000,     0.000,   5
 27004,'LD',1,   1,   1,    34.840,    12.260,     0.000,     0.000,     0.000,     0.000,   2
 27204,'LD',1,   2,   1,    57.540,    13.670,     0.000,     0.000,     0.000,     0.000,   2
 27404,'LD',1,   6,   1,    13.510,     7.480,     0.000,     0.000,     0.000,     0.000,   2
 27471,'HL',0,   6,   1,     3.000,     1.080,     0.000,     0.000,     0.000,     0.000,   3
 27472,'HL',0,   6,   1,     3.000,     1.080,     0.000,     0.000,     0.000,     0.000,   3
 27473,'HL',0,   6,   1,     7.990,     2.870,     0.000,     0.000,     0.000,     0.000,   3
 27604,'LD',1,   1,   1,    42.360,    20.120,     0.000,     0.000,     0.000,     0.000,   2
 27801,'LD',1,   9,   1,    25.810,    12.300,     0.000,     0.000,     0.000,     0.000,   2
 27804,'LD',1,   9,   1,    59.580,    22.320,     0.000,     0.000,     0.000,     0.000,   2
 28201,'DM',1,   9,   2,    17.000,     5.600,     0.000,     0.000,     0.000,     0.000,   5
 28201,'MI',0,   9,   2,     3.890,     1.160,     0.000,     0.000,     0.000,     0.000,   5
 28204,'LD',1,   9,   1,     9.650,     2.900,     0.000,     0.000,     0.000,     0.000,   2
 28571,'HL',1,   3,   1,     8.710,     3.130,     0.000,     0.000,     0.000,     0.000,   1
 28601,'DM',1,   1,   2,     5.890,     1.900,     0.000,     0.000,     0.000,     0.000,   5
 28601,'LD',1,   1,   1,    -4.770,    -1.540,     0.000,     0.000,     0.000,     0.000,   2
 28604,'LD',1,   1,   1,    48.730,    14.720,     0.000,     0.000,     0.000,     0.000,   2
 28804,'LD',1,   3,   1,    14.960,     6.270,     0.000,     0.000,     0.000,     0.000,   2
 29401,'LD',1,   1,   1,    22.910,     7.530,     0.000,     0.000,     0.000,     0.000,   2
 29501,'LD',1,   1,   1,     5.500,     1.740,     0.000,     0.000,     0.000,     0.000,   2
 29672,'HL',1,   2,   2,     7.000,     2.520,     0.000,     0.000,     0.000,     0.000,   4
 29801,'LD',1,   3,   1,     8.600,     0.970,     0.000,     0.000,     0.000,     0.000,   2
 30804,'LD',1,   1,   1,    61.810,    25.260,     0.000,     0.000,     0.000,     0.000,   2
 31004,'LD',1,   5,   1,    23.390,     8.930,     0.000,     0.000,     0.000,     0.000,   2
 31271,'HL',1,   2,   2,     6.730,     2.420,     0.000,     0.000,     0.000,     0.000,   4
 32201,'LD',1,   3,   1,     7.370,     2.410,     0.000,     0.000,     0.000,     0.000,   2
 32204,'LD',1,   3,   1,    72.380,    17.140,     0.000,     0.000,     0.000,     0.000,   2
 32404,'LD',1,   8,   1,    39.840,    20.420,     0.000,     0.000,     0.000,     0.000,   2
 32604,'LD',1,   6,   1,    59.830,    34.700,     0.000,     0.000,     0.000,     0.000,   2
 33004,'LD',1,   7,   1,    33.780,    12.610,     0.000,     0.000,     0.000,     0.000,   2
 33201,'DM',1,  10,   2,    24.220,     8.000,     0.000,     0.000,     0.000,     0.000,   5
 33801,'DM',1,   8,   2,    11.730,     3.900,     0.000,     0.000,     0.000,     0.000,   5
 34001,'LD',1,   5,   1,     3.140,     0.490,     0.000,     0.000,     0.000,     0.000,   2
 34201,'DM',1,   1,   2,    22.420,     7.400,     0.000,     0.000,     0.000,     0.000,   5
 34201,'LD',1,   1,   1,     6.460,     0.840,     0.000,     0.000,     0.000,     0.000,   2
 34301,'DM',1,   1,   2,    23.750,     7.800,     0.000,     0.000,     0.000,     0.000,   5
 35004,'LD',1,   9,   1,    12.060,     0.000,     0.000,     0.000,     0.000,     0.000,   2
 35074,'HL',1,   9,   1,     8.100,     2.910,     0.000,     0.000,     0.000,     0.000,   3
 35404,'LD',1,   7,   1,    60.300,    35.300,     0.000,     0.000,     0.000,     0.000,   2
 35604,'LD',1,  10,   1,    31.480,    12.290,     0.000,     0.000,     0.000,     0.000,   2
 35771,'HL',1,   3,   1,    10.800,     3.880,     0.000,     0.000,     0.000,     0.000,   1
 35804,'LD',1,   9,   1,    48.340,    16.200,     0.000,     0.000,     0.000,     0.000,   2
 36001,'LD',1,   3,   1,    18.240,     5.980,     0.000,     0.000,     0.000,     0.000,   2
 37501,'DM',1,   1,   2,     6.180,     2.000,     0.000,     0.000,     0.000,     0.000,   5
 37501,'LD',1,   1,   1,     6.230,     2.050,     0.000,     0.000,     0.000,     0.000,   2
 37601,'LD',1,   2,   1,    30.180,     9.760,     0.000,     0.000,     0.000,     0.000,   2
 37602,'DM',1,   2,   2,     5.000,     1.600,     0.000,     0.000,     0.000,     0.000,   5
 37602,'MI',0,   2,   2,     5.440,     1.630,     0.000,     0.000,     0.000,     0.000,   5
 38001,'LD',1,   3,   1,     9.340,     3.060,     0.000,     0.000,     0.000,     0.000,   2
 38004,'LD',1,   3,   1,    25.690,    12.670,     0.000,     0.000,     0.000,     0.000,   2
 38204,'LD',1,  10,   1,    36.790,    15.610,     0.000,     0.000,     0.000,     0.000,   2
 38601,'LD',1,   1,   1,     8.440,     2.410,     0.000,     0.000,     0.000,     0.000,   2
 38701,'LD',1,   1,   1,     8.440,     2.410,     0.000,     0.000,     0.000,     0.000,   2
 38804,'LD',1,   3,   1,     8.290,     5.070,     0.000,     0.000,     0.000,     0.000,   2
 39471,'HL',1,   4,   1,    18.570,     6.680,     0.000,     0.000,     0.000,     0.000,   3
 39472,'HL',1,   7,   1,    18.570,     6.680,     0.000,     0.000,     0.000,     0.000,   3
 39473,'HL',1,   4,   1,    18.570,     6.680,     0.000,     0.000,     0.000,     0.000,   3
 39601,'LD',1,   3,   1,    23.570,     7.740,     0.000,     0.000,     0.000,     0.000,   2
 39672,'HL',0,   3,   1,     3.000,     1.080,     0.000,     0.000,     0.000,     0.000,   3
 39675,'HL',0,   3,   1,     5.000,     1.800,     0.000,     0.000,     0.000,     0.000,   3
 39801,'DM',1,   7,   2,    25.650,     8.400,     0.000,     0.000,     0.000,     0.000,   5
 40001,'LD',1,   9,   1,    13.990,     3.860,     0.000,     0.000,     0.000,     0.000,   2
 40004,'LD',1,   9,   1,    28.470,    14.350,     0.000,     0.000,     0.000,     0.000,   2
 40204,'LD',1,   3,   1,    18.090,     7.620,     0.000,     0.000,     0.000,     0.000,   2
 40404,'LD',1,   9,   1,    26.660,     8.080,     0.000,     0.000,     0.000,     0.000,   2
 40601,'LD',1,  10,   1,     2.700,     0.870,     0.000,     0.000,     0.000,     0.000,   2
 40602,'DM',1,  10,   2,     7.600,     2.500,     0.000,     0.000,     0.000,     0.000,   5
 40604,'LD',1,  10,   1,    19.250,     5.790,     0.000,     0.000,     0.000,     0.000,   2
 40801,'LD',1,   8,   1,     2.290,     0.760,     0.000,     0.000,     0.000,     0.000,   2
 42004,'LD',1,   8,   1,    28.400,    13.030,     0.000,     0.000,     0.000,     0.000,   2
 42102,'DM',1,   1,   2,     7.220,     2.400,     0.000,     0.000,     0.000,     0.000,   5
 42102,'LD',1,   1,   1,    15.150,     4.980,     0.000,     0.000,     0.000,     0.000,   2
 42204,'LD',1,  10,   1,    48.370,    18.820,     0.000,     0.000,     0.000,     0.000,   2
 42604,'LD',1,   7,   1,    27.500,     9.040,     0.000,     0.000,     0.000,     0.000,   2
 42802,'DM',1,   1,   2,    26.000,     8.500,     0.000,     0.000,     0.000,     0.000,   5
 43604,'LD',1,   7,   1,    30.160,    12.060,     0.000,     0.000,     0.000,     0.000,   2
 44001,'LD',1,   1,   1,    13.380,     4.490,     0.000,     0.000,     0.000,     0.000,   2
 44671,'HL',0,   2,   1,     5.500,     1.980,     0.000,     0.000,     0.000,     0.000,   3
 44672,'HL',0,   2,   1,     5.500,     1.980,     0.000,     0.000,     0.000,     0.000,   3
 44673,'HL',0,   2,   1,    12.990,     4.670,     0.000,     0.000,     0.000,     0.000,   3
 44804,'LD',1,   8,   1,    29.760,    11.400,     0.000,     0.000,     0.000,     0.000,   2
 44901,'DM',1,   1,   2,    20.900,     6.900,     0.000,     0.000,     0.000,     0.000,   5
 44901,'LD',1,   1,   1,     7.970,     2.290,     0.000,     0.000,     0.000,     0.000,   2
 45001,'DM',1,  10,   2,    54.620,    17.100,     0.000,     0.000,     0.000,     0.000,   5
 45101,'LD',1,   1,   1,    14.480,     2.900,     0.000,     0.000,     0.000,     0.000,   2
 46210,'DM',1,   2,   2,    24.000,     7.900,     0.000,     0.000,     0.000,     0.000,   5
 46214,'DM',1,   2,   2,    26.000,     8.500,     0.000,     0.000,     0.000,     0.000,   5
 46224,'DM',1,   2,   2,    31.000,    10.190,     0.000,     0.000,     0.000,     0.000,   5
 46501,'LD',1,   1,   1,    25.050,    20.760,     0.000,     0.000,     0.000,     0.000,   2
 46804,'LD',1,   7,   1,    25.450,    11.340,     0.000,     0.000,     0.000,     0.000,   2
 47004,'LD',1,   9,   1,    34.250,    14.600,     0.000,     0.000,     0.000,     0.000,   2
 47402,'DM',1,   2,   2,    15.200,     5.000,     0.000,     0.000,     0.000,     0.000,   5
 47601,'LD',1,   3,   1,     1.810,     0.590,     0.000,     0.000,     0.000,     0.000,   2
 49474,'HL',1,   5,   1,    11.260,     4.050,     0.000,     0.000,     0.000,     0.000,   3
 49501,'LD',1,   9,   1,     9.650,     2.900,     0.000,     0.000,     0.000,     0.000,   2
 49504,'LD',1,   9,   1,    49.020,    11.580,     0.000,     0.000,     0.000,     0.000,   2
 49604,'LD',1,  10,   1,    59.240,    26.570,     0.000,     0.000,     0.000,     0.000,   2
 49701,'LD',1,   6,   1,    12.550,     3.470,     0.000,     0.000,     0.000,     0.000,   2
 49804,'LD',1,   9,   1,    48.850,    20.020,     0.000,     0.000,     0.000,     0.000,   2
 50004,'LD',1,   9,   1,    26.630,     9.900,     0.000,     0.000,     0.000,     0.000,   2
 50276,'HL',1,   2,   1,     9.990,     3.590,     0.000,     0.000,     0.000,     0.000,   3
 50301,'LD',1,   1,   1,    12.550,     4.120,     0.000,     0.000,     0.000,     0.000,   2
 50573,'HL',1,   7,   2,     0.850,     0.300,     0.000,     0.000,     0.000,     0.000,   4
 50574,'HL',1,   7,   2,     0.850,     0.300,     0.000,     0.000,     0.000,     0.000,   4
 50604,'LD',1,   6,   1,    14.720,     5.540,     0.000,     0.000,     0.000,     0.000,   2
 50901,'LD',1,   7,   1,    11.580,     3.180,     0.000,     0.000,     0.000,     0.000,   2
 51471,'HL',0,   7,   1,     3.000,     1.080,     0.000,     0.000,     0.000,     0.000,   3
 51472,'HL',0,   7,   1,     3.000,     1.080,     0.000,     0.000,     0.000,     0.000,   3
 51473,'HL',0,   7,   1,    15.300,     5.500,     0.000,     0.000,     0.000,     0.000,   3
 51474,'HL',0,   7,   1,    15.300,     5.500,     0.000,     0.000,     0.000,     0.000,   3
...
0 / END OF LOAD DATA, BEGIN GENERATOR DATA
 10204,'2 ',     0.231,    -0.070,    -0.070,    -0.070,1.04000,     0,     0.895,   0.00000,   0.25400,   0.00000,   0.20000,1.00000,1,  100.0,     0.660,     0.000,   4,1.0000
 10204,'3 ',     2.625,    -0.820,    -0.820,    -0.820,1.04000,     0,     8.625,   0.00000, 999.00000,   0.00000,   0.20000,1.00000,1,  100.0,     7.500,     0.000,   2,1.0000
 10271,'1 ',    21.000,    15.000,    15.000,    -7.000,1.07500,  1021,    34.000,   0.00000,   0.26000,   0.00000,   0.00000,1.00000,1,   15.0,    21.000,     5.000,   3,1.0000
 10272,'2 ',    21.000,    15.000,    15.000,    -7.000,1.07500,  1021,    34.000,   0.00000,   0.26000,   0.00000,   0.00000,1.00000,1,   15.0,    22.000,     5.000,   3,1.0000
 10273,'3 ',    19.000,     0.000,    15.000,    -7.000,1.07500,  1021,    34.000,   0.00000,   0.26000,   0.00000,   0.00000,1.00000,0,   15.0,    19.000,     5.000,   3,1.0000
 10274,'4 ',    24.000,     0.000,    15.000,    -7.000,1.07500,  1021,    34.000,   0.00000,   0.25000,   0.00000,   0.00000,1.00000,0,   15.0,    24.000,     5.000,   3,1.0000
 10471,'1 ',   270.000,     0.000,   153.000,   -53.000,1.07500,  1042,   318.800,   0.00000,   0.26400,   0.00000,   0.00000,1.00000,0,  153.0,   270.000,    40.000,   3,1.0000
 10472,'11',    90.000,     0.000,    60.000,   -30.000,1.07500,  1072,   100.900,   0.00000,   0.14700,   0.00000,   0.00000,1.00000,0,   60.0,    90.000,    20.000,   3,1.0000
 10473,'12',    90.000,     0.000,    60.000,   -30.000,1.07500,  1052,   100.900,   0.00000,   0.14700,   0.00000,   0.00000,1.00000,0,   60.0,    90.000,    20.000,   3,1.0000
 10474,'14',    90.000,     0.000,    60.000,   -30.000,1.07500,  1072,   100.900,   0.00000,   0.14700,   0.00000,   0.00000,1.00000,0,   60.0,    90.000,    20.000,   3,1.0000
 10475,'5 ',    52.300,     0.000,    32.600,   -22.700,1.07500,  1041,    62.000,   0.00000,   0.25400,   0.00000,   0.00000,1.00000,0,   32.6,    52.300,     1.200,   3,1.0000
 10602,'1 ',     0.420,    -0.130,    -0.130,    -0.130,1.04000,     0,     1.380,   0.00000,   0.25400,   0.00000,   0.20000,1.00000,1,  100.0,     1.200,     0.000,   4,1.0000
 10602,'2 ',     1.680,    -0.520,    -0.520,    -0.520,1.04000,     0,     5.520,   0.00000,   0.25400,   0.00000,   0.20000,1.00000,1,  100.0,     4.800,     0.000,   4,1.0000
 10602,'3 ',     1.750,    -0.550,    -0.550,    -0.550,1.04000,     0,     5.750,   0.00000,   0.25400,   0.00000,   0.20000,1.00000,1,  100.0,     5.000,     0.000,   4,1.0000
 10602,'5 ',     1.890,    -1.770,    -1.770,    -2.300,1.04000,     0,     7.050,   0.00000,   0.25400,   0.00000,   0.05640,1.00000,1,  100.0,     5.400,     0.000,   2,1.0000
 11204,'1 ',     8.820,    -2.750,    -2.750,    -2.750,1.04000,     0,    29.000,   0.00000,   0.25400,   0.00000,   0.20000,1.00000,1,  100.0,    25.200,     0.000,   2,1.0000
 11371,'1 ',    17.850,    -8.234,    11.900,   -11.900,1.07500,  1131,    58.650,   0.00000,   0.25400,   0.00000,   0.00000,1.00000,1,  100.0,    51.000,     0.000,   4,1.0000
 11402,'1 ',     1.487,    -1.400,    -1.400,    -1.810,1.04000,     0,     4.475,   0.00000,   0.25400,   0.00000,   0.06000,1.00000,1,  100.0,     4.250,     0.000,   1,1.0000
 12371,'1 ',    14.700,     9.700,     9.700,    -9.700,1.07500,  1231,    42.000,   0.00000,   0.25400,   0.00000,   0.00000,1.00000,1,  100.0,    42.000,     0.000,   4,1.0000
 12571,'1 ',     6.807,     4.490,     4.490,    -4.490,1.07500,  1251,    23.925,   0.00000,   0.25400,   0.00000,   0.00000,1.00000,1,  100.0,    19.450,     0.000,   4,1.0000
 12804,'1 ',     2.975,    -0.930,    -0.930,    -0.930,1.04000,     0,     8.950,   0.00000,   0.25400,   0.00000,   0.20000,1.00000,1,  100.0,     8.500,     0.000,   2,1.0000
 12804,'2 ',     6.842,    -2.140,    -2.140,    -2.140,1.04000,     0,    20.585,   0.00000,   0.25400,   0.00000,   0.20000,1.00000,1,  100.0,    19.550,     0.000,   2,1.0000
 13302,'1 ',     5.057,    -2.055,     2.030,    -3.360,1.00000,     0,    15.215,   0.00000,   0.25400,   0.00000,   0.06000,1.00000,1,  100.0,    14.450,     0.000,   2,1.0000
 13302,'2 ',     1.750,    -0.711,     0.700,    -1.190,1.00000,     0,     5.520,   0.00000,   0.25400,   0.00000,   0.00000,1.00000,1,  100.0,     5.000,     0.000,   2,1.0000
 13312,'1 ',     1.400,    -1.310,    -1.310,    -1.700,1.07500,  1331,     4.700,   0.00000,   0.25400,   0.00000,   0.56400,1.00000,1,  100.0,     4.000,     0.000,   1,1.0000
 13312,'2 ',     1.400,    -1.310,    -1.310,    -1.700,1.07500,  1331,     4.030,   0.00000,   0.25400,   0.00000,   0.06717,1.00000,1,  100.0,     4.000,     0.000,   1,1.0000
 13312,'3 ',     1.260,    -1.180,    -1.180,    -1.530,1.07500,  1331,     3.600,   0.00000,   0.25400,   0.00000,   0.05400,1.00000,1,  100.0,     3.600,     0.000,   1,1.0000
 13312,'4 ',     5.180,     3.430,     3.430,    -3.430,1.07500,  1331,    17.350,   0.00000,   0.25400,   0.00000,   0.05627,1.00000,1,  100.0,    14.800,     0.000,   1,1.0000
 13404,'1 ',     0.231,    -0.070,    -0.070,    -0.070,1.04000,     0,     0.759,   0.00000,   0.25400,   0.00000,   0.20000,1.00000,1,  100.0,     0.660,     0.000,   4,1.0000
 13404,'2 ',     0.893,    -0.280,    -0.280,    -0.280,1.04000,     0,     2.685,   0.00000,   0.25400,   0.00000,   0.20000,1.00000,1,  100.0,     2.550,     0.000,   2,1.0000
 13404,'3 ',     4.165,    -1.300,    -1.300,    -1.300,1.04000,     0,    13.685,   0.00000,   0.25400,   0.00000,   0.20000,1.00000,1,  100.0,    11.900,     0.000,   2,1.0000
 13404,'4 ',     5.250,    -1.640,    -1.640,    -1.640,1.04000,     0,    17.170,   0.00000,   0.25400,   0.00000,   0.20000,1.00000,1,  100.0,    15.000,     0.000,   2,1.0000
 13404,'5 ',     2.100,    -0.660,    -0.660,    -0.660,1.04000,     0,     6.900,   0.00000,   0.25400,   0.00000,   0.20000,1.00000,1,  100.0,     6.000,     0.000,   2,1.0000
 13404,'6 ',     2.678,    -0.840,    -0.840,    -0.840,1.04000,     0,     8.055,   0.00000,   0.25400,   0.00000,   0.20000,1.00000,1,  100.0,     7.650,     0.000,   2,1.0000
 14002,'3 ',     2.257,    -0.700,    -0.700,    -0.700,1.04000,     0,     7.418,   0.00000,   0.25400,   0.00000,   0.10000,1.00000,1,  100.0,     6.450,     0.000,   3,1.0000
 14404,'1 ',     1.575,    -0.490,    -0.490,    -0.490,1.04000,     0,     5.151,   0.00000,   0.25400,   0.00000,   0.20000,1.00000,1,  100.0,     4.500,     0.000,   2,1.0000
 14604,'1 ',     4.800,     0.000,     1.000,    -1.000,1.05000,     0,     7.000,   0.00000,   0.14800,   0.00000,   0.10000,1.00000,0,    1.0,     4.800,     0.000,   5,1.0000
 14804,'1 ',     0.595,    -0.190,    -0.190,    -0.190,1.04000,     0,     1.790,   0.00000,   0.25400,   0.00000,   0.20000,1.00000,1,  100.0,     1.700,     0.000,   4,1.0000
 16371,'1 ',     1.190,    -0.770,     0.490,    -0.770,1.01500, 16302,     3.580,   0.00000,   0.25400,   0.00000,   0.10000,1.00000,1,  100.0,     3.400,     0.000,   1,1.0000
 16372,'2 ',     1.190,    -0.770,     0.490,    -0.770,1.00000,     0,     3.580,   0.00000,   0.25400,   0.00000,   0.10000,1.00000,1,  100.0,     3.400,     0.000,   1,1.0000
 16373,'3 ',     2.380,    -1.366,     0.980,    -1.610,1.01500, 16302,     7.160,   0.00000,   0.25400,   0.00000,   0.10000,1.00000,1,  100.0,     6.800,     0.000,   1,1.0000
 16374,'4 ',     2.660,    -1.366,     1.760,    -1.760,1.01500, 16302,     8.055,   0.00000,   0.25400,   0.00000,   0.10000,1.00000,1,  100.0,     7.600,     0.000,   1,1.0000
 16375,'5 ',     1.487,    -0.980,     0.980,    -0.980,1.01500, 16302,     4.475,   0.00000,   0.25400,   0.00000,   0.10000,1.00000,1,  100.0,     4.250,     0.000,   1,1.0000
 16376,'6 ',     1.732,    -0.540,    -0.540,    -0.540,1.00000,     0,     5.370,   0.00000,   0.25400,   0.00000,   0.10000,1.00000,1,  100.0,     4.950,     0.000,   4,1.0000
 16377,'1 ',     3.150,     2.100,     2.100,    -2.100,1.07500,  1631,     9.570,   0.00000,   0.25400,   0.00000,   0.00000,1.00000,1,  100.0,     9.000,     0.000,   1,1.0000
 16378,'1 ',     0.559,    -0.530,    -0.530,    -0.680,1.04000,     0,     1.790,   0.00000,   0.25400,   0.00000,   0.00000,1.00000,1,  100.0,     1.598,     0.000,   1,1.0000
 16571,'1 ',    13.230,     1.860,     8.770,    -8.770,1.07500,  1651,    39.000,   0.00000,   0.25400,   0.00000,   0.00000,1.00000,1,  100.0,    37.800,     0.000,   4,1.0000
 16602,'1 ',     1.190,    -0.370,    -0.370,    -0.370,1.04000,     0,     3.580,   0.00000,   0.25400,   0.00000,   0.06000,1.00000,1,  100.0,     3.400,     0.000,   4,1.0000
 16602,'2 ',     0.595,    -0.560,    -0.560,    -0.730,1.04000,     0,     1.790,   0.00000,   0.25400,   0.00000,   0.06000,1.00000,1,  100.0,     1.700,     0.000,   1,1.0000
 16604,'2 ',     6.545,    -2.040,    -2.040,    -2.040,1.00000,     0,    19.690,   0.00000,   0.25400,   0.00000,   0.20000,1.00000,1,  100.0,    18.700,     0.000,   4,1.0000
 16604,'3 ',     0.735,    -0.230,    -0.230,    -0.230,1.00000,     0,     2.300,   0.00000,   0.25400,   0.00000,   0.00000,1.00000,1,  100.0,     2.100,     0.000,   2,1.0000
 16612,'1 ',     2.975,    -2.790,    -2.790,    -3.620,1.04000,     0,     8.950,   0.00000,   0.25400,   0.00000,   0.06000,1.00000,1,  100.0,     8.500,     0.000,   1,1.0000
 16873,'3 ',     2.000,     7.000,     7.000,    -1.000,1.07500,  1681,    11.500,   0.00000,   0.31700,   0.00000,   0.00000,1.00000,1,    7.0,     8.000,     2.000,   3,1.0000
 17004,'5 ',     0.693,    -0.220,    -0.220,    -0.220,1.04000,     0,     3.100,   0.00000,   0.25400,   0.00000,   0.20000,1.00000,1,  100.0,     1.980,     0.000,   4,1.0000
 17004,'6 ',     0.385,    -0.120,    -0.120,    -0.120,1.04000,     0,     1.500,   0.00000,   0.25400,   0.00000,   0.20000,1.00000,1,  100.0,     1.100,     0.000,   4,1.0000
 17004,'7 ',     1.190,    -0.370,    -0.370,    -0.370,1.04000,     0,     3.580,   0.00000,   0.25400,   0.00000,   0.20000,1.00000,1,  100.0,     3.400,     0.000,   2,1.0000
 17073,'3 ',    22.500,   -10.000,     7.000,   -10.000,1.05000,  1701,    30.000,   0.00000,   0.25400,   0.00000,   0.00000,1.00000,1,    7.0,    22.500,     5.000,   3,1.0000
 17074,'4 ',    22.500,     0.000,     7.000,   -10.000,1.05000,  1701,    30.000,   0.00000,   0.25400,   0.00000,   0.00000,1.00000,0,    7.0,    22.500,     5.000,   3,1.0000
 17671,'1 ',    10.000,    -3.000,     7.000,    -3.000,1.05000,  1701,    12.500,   0.00000,   0.19000,   0.00000,   0.00000,1.00000,1,    7.0,    10.000,     3.000,   3,1.0000
 17672,'2 ',    10.000,     0.000,     7.000,    -3.000,1.05000,  1701,    12.500,   0.00000,   0.19000,   0.00000,   0.00000,1.00000,0,    7.0,    10.000,     3.000,   3,1.0000
 17771,'1 ',    14.429,     5.026,     9.590,    -9.590,1.07500,  2771,    42.925,   0.00000,   0.25400,   0.00000,   0.00000,1.00000,1,  100.0,    41.225,     0.000,   4,1.0000
 18404,'1 ',     1.747,    -0.550,    -0.550,    -0.550,1.04000,     0,     5.739,   0.00000,   0.25400,   0.00000,   0.20000,1.00000,1,  100.0,     4.990,     0.000,   2,1.0000
 18802,'1 ',     1.050,    -0.330,    -0.330,    -0.330,1.04000,     0,     3.125,   0.00000,   0.25400,   0.00000,   0.07962,1.00000,1,  100.0,     3.000,     0.000,   1,1.0000
 19071,'1 ',     0.893,    -0.280,    -0.280,    -0.280,1.04000,     0,     2.685,   0.00000,   0.25400,   0.00000,   0.06000,1.00000,1,  100.0,     2.550,     0.000,   4,1.0000
 19071,'2 ',     0.595,    -0.560,    -0.560,    -0.730,1.04000,     0,     1.790,   0.00000,   0.25400,   0.00000,   0.06000,1.00000,1,  100.0,     1.700,     0.000,   4,1.0000
 19072,'1 ',     1.750,    -0.550,    -0.550,    -0.550,1.04000,     0,     7.050,   0.00000,   0.25400,   0.00000,   0.05640,1.00000,1,  100.0,     4.999,     0.000,   4,1.0000
 19072,'2 ',     1.575,    -0.490,    -0.490,    -0.490,1.04000,     0,     4.700,   0.00000,   0.25400,   0.00000,   0.05647,1.00000,1,  100.0,     4.500,     0.000,   4,1.0000
 19073,'1 ',     7.350,    -6.900,    -6.900,    -8.950,1.04000,     0,    21.875,   0.00000,   0.25400,   0.00000,   0.07962,1.00000,1,  100.0,    21.000,     0.000,   4,1.0000
 19371,'1 ',    12.180,     2.266,     8.120,    -8.120,1.07500,  1931,    36.500,   0.00000,   0.25400,   0.00000,   0.00000,1.00000,1,  100.0,    34.800,     0.000,   4,1.0000
 19471,'1 ',   110.000,    65.479,    75.000,   -50.000,1.07500,  1941,   153.000,   0.00000,   0.18800,   0.00000,   0.00000,1.00000,1,   75.0,   130.000,    60.000,   4,1.0000
 19771,'1 ',    14.875,     5.950,     5.950,    -9.940,1.07500,  1971,    45.000,   0.00000,   0.25400,   0.00000,   0.00000,1.00000,1,  100.0,    42.500,     0.000,   4,1.0000
 19902,'1 ',    14.490,     9.660,     9.660,    -9.660,1.07500,  1991,    41.400,   0.00000,   0.25400,   0.00000,   0.00000,1.00000,1,  100.0,    41.400,     0.000,   1,1.0000
 21004,'1 ',     2.625,    -0.820,    -0.820,    -0.820,1.04000,     0,     8.625,   0.00000,   0.25400,   0.00000,   0.20000,1.00000,1,  100.0,     7.500,     0.000,   4,1.0000
 21004,'2 ',     0.175,    -0.050,    -0.050,    -0.050,1.04000,     0,     0.895,   0.00000,   0.25400,   0.00000,   0.20000,1.00000,1,  100.0,     0.500,     0.000,   2,1.0000
 21402,'1 ',     0.595,    -0.560,    -0.560,    -0.730,1.04000,     0,     1.790,   0.00000,   0.25400,   0.00000,   0.06000,1.00000,1,  100.0,     1.700,     0.000,   1,1.0000
 21802,'1 ',     0.595,    -0.190,    -0.190,    -0.190,1.04000,     0,     1.790,   0.00000,   0.25400,   0.00000,   0.06000,1.00000,1,  100.0,     1.700,     0.000,   4,1.0000
 21802,'2 ',     1.050,    -0.990,    -0.990,    -1.280,1.04000,     0,     3.125,   0.00000,   0.25400,   0.00000,   0.07962,1.00000,1,  100.0,     3.000,     0.000,   1,1.0000
 22204,'1 ',     1.617,    -0.500,    -0.500,    -0.500,1.04000,     0,     5.313,   0.00000,   0.25400,   0.00000,   0.20000,1.00000,1,  100.0,     4.620,     0.000,   3,1.0000
 22204,'2 ',     2.079,    -0.650,    -0.650,    -0.650,1.04000,     0,     6.831,   0.00000,   0.25400,   0.00000,   0.20000,1.00000,1,  100.0,     5.940,     0.000,   3,1.0000
 22204,'3 ',     2.082,    -0.650,    -0.650,    -0.650,1.04000,     0,     6.868,   0.00000,   0.25400,   0.00000,   0.20000,1.00000,1,  100.0,     5.950,     0.000,   4,1.0000
 22204,'4 ',     1.487,    -0.460,    -0.460,    -0.460,1.04000,     0,     5.000,   0.00000,   0.20000,   0.00000,   0.20000,1.00000,1,  100.0,     4.250,     0.000,   4,1.0000
 22371,'1 ',    20.825,     7.378,     8.330,   -13.880,1.07500,  2231,    62.650,   0.00000,   0.25400,   0.00000,   0.00000,1.00000,1,  100.0,    59.500,     0.000,   4,1.0000
 22404,'1 ',     0.893,    -0.280,    -0.280,    -0.280,1.04000,     0,     2.685,   0.00000,   0.20000,   0.00000,   0.20000,1.00000,1,  100.0,     2.550,     0.000,   4,1.0000
 22404,'2 ',     1.487,    -0.460,    -0.460,    -0.460,1.04000,     0,     5.000,   0.00000,   0.20000,   0.00000,   0.20000,1.00000,1,  100.0,     4.250,     0.000,   4,1.0000
 22671,'1 ',    52.100,     0.000,    32.600,   -22.700,1.07500,  2261,    62.000,   0.00000,   0.25400,   0.00000,   0.00000,1.00000,0,   32.6,    52.100,     1.200,   3,1.0000
 22672,'2 ',    52.100,     0.000,    32.600,   -22.700,1.07500,  2261,    62.000,   0.00000,   0.25400,   0.00000,   0.00000,1.00000,0,   32.6,    52.100,     1.200,   3,1.0000
 22802,'1 ',     0.893,    -0.840,    -0.840,    -1.090,1.04000,     0,     2.685,   0.00000,   0.25400,   0.00000,   0.06000,1.00000,1,  100.0,     2.550,     0.000,   1,1.0000
 26702,'1 ',    11.034,     7.131,     7.350,    -7.350,1.07500,  2671,    32.500,   0.00000,   0.25400,   0.00000,   0.00000,1.00000,1,  100.0,    31.525,     0.000,   4,1.0000
 26703,'1 ',     9.345,     6.230,     6.230,    -6.230,1.07500,  2671,    26.700,   0.00000,   0.25400,   0.00000,   0.00000,1.00000,1,  100.0,    26.700,     0.000,   4,1.0000
 27204,'5 ',     4.000,     0.000,     1.000,    -1.000,1.04000,     0,     5.000,   0.00000,   0.30000,   0.00000,   0.10000,1.00000,0,    1.0,     4.000,     0.000,   3,1.0000
 27371,'1 ',     4.480,     1.820,     1.820,    -3.010,1.07500,  2731,    15.215,   0.00000,   0.25400,   0.00000,   0.00000,1.00000,1,  100.0,    12.800,     0.000,   4,1.0000
 27372,'2 ',     5.950,     2.380,     2.380,    -3.990,1.07500,  2731,    18.750,   0.00000,   0.25400,   0.00000,   0.00000,1.00000,1,  100.0,    17.000,     0.000,   4,1.0000
 27402,'1 ',     1.487,    -1.400,    -1.400,    -1.810,1.04000,     0,     4.475,   0.00000,   0.25400,   0.00000,   0.06000,1.00000,1,  100.0,     4.250,     0.000,   1,1.0000
 27471,'1 ',    57.000,     0.000,    42.000,    -3.000,1.07500,  2741,    75.000,   0.00000,   0.20300,   0.00000,   0.00000,1.00000,0,   42.0,    57.000,    25.000,   3,1.0000
 27472,'2 ',    57.000,     0.000,    40.000,    -3.000,1.07500,  2741,    75.000,   0.00000,   0.20300,   0.00000,   0.00000,1.00000,0,   40.0,    57.000,    25.000,   3,1.0000
 27473,'3 ',   116.000,     0.000,    82.000,   -48.000,1.07500,  2742,   150.000,   0.00000,   0.18500,   0.00000,   0.00000,1.00000,0,   82.0,   116.000,    30.000,   3,1.0000
 27804,'1 ',     1.155,    -0.360,    -0.360,    -0.360,1.04000,     0,     3.795,   0.00000,   0.25400,   0.00000,   0.20000,1.00000,1,  100.0,     3.300,     0.000,   4,1.0000
 27804,'2 ',     0.236,    -0.070,    -0.070,    -0.070,1.04000,     0,     0.776,   0.00000,   0.25400,   0.00000,   0.20000,1.00000,1,  100.0,     0.675,     0.000,   2,1.0000
 28002,'1 ',     5.250,    -2.170,    -2.170,    -2.170,1.00000,     0,    17.250,   0.00000,   0.25400,   0.00000,   0.10000,1.00000,1,  100.0,    15.000,     0.000,   4,1.0000
 28571,'1 ',   400.000,    31.548,   282.100,  -196.800,1.07500,  1062,   535.500,   0.00000,   0.24500,   0.00000,   0.00000,1.00000,1,  282.1,   450.470,   110.100,   4,1.0000
 28804,'2 ',     8.855,    -2.760,    -2.760,    -2.760,1.04000,     0,    28.578,   0.00000,   0.20000,   0.00000,   0.20000,1.00000,1,  100.0,    25.300,     0.000,   4,1.0000
 28814,'1 ',     3.675,    -1.150,    -1.150,    -1.150,1.04000,     0,    12.019,   0.00000,   0.25400,   0.00000,   0.20000,1.00000,1,  100.0,    10.500,     0.000,   2,1.0000
 29671,'ST',   120.000,     5.595,    90.000,   -47.000,1.07500,  2562,   150.000,   0.00000,   0.18800,   0.00000,   0.00000,1.00000,1,   90.0,   120.000,    40.000,   4,1.0000
 29672,'CT',   230.000,    10.755,   173.000,  -106.000,1.07500,  2562,   288.000,   0.00000,   0.17900,   0.00000,   0.00000,1.00000,1,  173.0,   230.000,   138.000,   4,1.0000
 29673,'2 ',   380.000,    15.480,   249.000,  -100.000,1.07500,  2562,   473.000,   0.00500,   0.25600,   0.00000,   0.00000,1.00000,1,  249.0,   400.000,   257.000,   4,1.0000
 30671,'1 ',     4.000,    13.000,    13.000,    -4.000,1.07500,  3061,    21.400,   0.00000,   0.20300,   0.00000,   0.00000,1.00000,1,   13.0,    15.000,     4.000,   3,1.0000
 30671,'2 ',     1.000,     3.000,     3.000,    -1.000,1.07500,  3061,     5.700,   0.00000,   0.17800,   0.00000,   0.00000,1.00000,1,   13.0,     4.000,     1.000,   3,1.0000
 31002,'1 ',     0.893,    -0.280,    -0.280,    -0.280,1.04000,     0,     2.685,   0.00000,   0.25400,   0.00000,   0.06000,1.00000,1,  100.0,     2.550,     0.000,   1,1.0000
 31002,'2 ',     0.298,    -0.280,    -0.280,    -0.360,1.04000,     0,     0.895,   0.00000,   0.25400,   0.00000,   0.06000,1.00000,1,  100.0,     0.850,     0.000,   1,1.0000
 31004,'1 ',     0.893,    -0.280,    -0.280,    -0.280,1.04000,     0,     2.685,   0.00000,   0.25400,   0.00000,   0.20000,1.00000,1,  100.0,     2.550,     0.000,   2,1.0000
 31271,'1 ',   400.000,    66.503,   200.000,  -114.000,1.07500,  3122,   500.000,   0.00000,   0.27000,   0.00000,   0.00000,1.00000,1,  200.0,   409.900,   163.000,   4,1.0000
 32404,'1 ',     4.100,     0.000,     1.000,    -1.000,1.04000,     0,     4.800,   0.00000,   0.25000,   0.00000,   0.06000,1.00000,0,    1.0,     4.100,     0.000,   2,1.0000
 32604,'1 ',     7.500,     0.000,     1.000,    -1.000,1.05000,     0,     8.500,   0.00000,   0.14800,   0.00000,   0.10000,1.00000,0,    1.0,     7.500,     0.000,   5,1.0000
 33004,'1 ',     3.272,    -1.020,    -1.020,    -1.020,1.04000,     0,     9.845,   0.00000,   0.25400,   0.00000,   0.20000,1.00000,1,  100.0,     9.350,     0.000,   2,1.0000
 35002,'1 ',     1.750,    -1.640,    -1.640,    -2.130,1.04000,     0,     6.045,   0.00000,   0.25400,   0.00000,   0.06717,1.00000,1,  100.0,     5.000,     0.000,   2,1.0000
 35074,'4 ',    90.000,    55.666,    60.000,   -20.000,1.07500,  3501,   121.100,   0.00500,   0.23000,   0.00000,   0.00000,1.00000,1,   60.0,   100.000,    25.000,   3,1.0000
 35771,'1 ',   400.000,    72.407,   250.000,   -80.000,1.07500,  3572,   500.000,   0.00000,   0.22500,   0.00000,   0.00000,1.00000,1,  250.0,   442.960,   222.000,   1,1.0000
 35802,'1 ',     0.893,    -0.280,    -0.280,    -0.280,1.04000,     0,     2.685,   0.00000,   0.25400,   0.00000,   0.06000,1.00000,1,  100.0,     2.550,     0.000,   4,1.0000
 35802,'2 ',     0.893,    -0.280,    -0.280,    -0.280,1.04000,     0,     2.685,   0.00000,   0.25400,   0.00000,   0.06000,1.00000,1,  100.0,     2.550,     0.000,   4,1.0000
 35802,'3 ',     1.190,    -1.120,    -1.120,    -1.450,1.04000,     0,     3.600,   0.00000,   0.25400,   0.00000,   0.05400,1.00000,1,  100.0,     3.400,     0.000,   1,1.0000
 35804,'1 ',     5.250,    -1.640,    -1.640,    -1.640,1.04000,     0,    17.250,   0.00000,   0.25400,   0.00000,   0.20000,1.00000,1,  100.0,    15.000,     0.000,   4,1.0000
 35804,'2 ',     1.743,    -0.540,    -0.540,    -0.540,1.04000,     0,     5.727,   0.00000,   0.25400,   0.00000,   0.20000,1.00000,1,  100.0,     4.980,     0.000,   4,1.0000
 35804,'3 ',     4.158,    -1.300,    -1.300,    -1.300,1.04000,     0,    13.662,   0.00000,   0.25400,   0.00000,   0.20000,1.00000,1,  100.0,    11.880,     0.000,   4,1.0000
 35804,'6 ',     1.785,    -0.560,    -0.560,    -0.560,1.04000,     0,     5.370,   0.00000,   0.25400,   0.00000,   0.20000,1.00000,1,  100.0,     5.100,     0.000,   2,1.0000
 38002,'1 ',     0.595,    -0.560,    -0.560,    -0.730,1.04000,     0,     1.790,   0.00000,   0.25400,   0.00000,   0.06000,1.00000,1,  100.0,     1.700,     0.000,   1,1.0000
 38204,'1 ',     3.675,    -1.150,    -1.150,    -1.150,1.04000,     0,    12.019,   0.00000,   0.25400,   0.00000,   0.20000,1.00000,1,  100.0,    10.500,     0.000,   4,1.0000
...